* C:\Users\user\Desktop\python_spice\cfl_lamp\cfl_equiv.asc 
<<<<<<< HEAD
R1 N001 0 693.3104325932708 
=======
R1 N001 0 509.89882352941174 
>>>>>>> b8db2dc0c5948cd258a4e2c56321481112f01586
D1 N003 N001 D 
D2 N004 N001 D 
D3 0 N003 D 
D4 0 N004 D 
<<<<<<< HEAD
C1 N001 0 -3.541502215609979 
R2 N002 N003 2.007186999313344 
=======
C1 N001 0 -3.8990560860608836 
R2 N002 N003 887.2776195925841 
>>>>>>> b8db2dc0c5948cd258a4e2c56321481112f01586
V1 N002 N004 SINE(0 170.83060321432882 60 0 0 -240.84000000000003) 
.model D D 
.lib C:\Users\user\Documents\LTspiceXVII\lib\cmp\standard.dio 
.options maxstep=1.25-5 
.tran 0 0.0512 
.backanno 
.end 
