* C:\Users\user\Desktop\python_spice\cfl_lamp\cfl_equiv.asc 
<<<<<<< HEAD
R1 N001 0 1766.487042761641 
=======
R1 N001 0 1714.5433537006675 
>>>>>>> 00aea78b2a0c510df9ccaea75aadba496332a27b
D1 N003 N001 D 
D2 N004 N001 D 
D3 0 N003 D 
D4 0 N004 D 
<<<<<<< HEAD
C1 N001 0 1.2541867345477637e-05 
R2 N002 N003 13.957334662624145 
=======
C1 N001 0 1.1310115149864331e-05 
R2 N002 N003 29.779137810171147 
>>>>>>> 00aea78b2a0c510df9ccaea75aadba496332a27b
V1 N002 N004 SINE(0 170.83060321432882 60 0 0 -240.84000000000003) 
.model D D 
.lib C:\Users\user\Documents\LTspiceXVII\lib\cmp\standard.dio 
.options maxstep=1.25-5 
.tran 0 0.0512 
.backanno 
.end 
