* C:\Users\user\Desktop\python_spice\cfl_lamp\cfl_equiv.asc 
<<<<<<< HEAD
R1 N001 0 1713.7610000000002 
=======
R1 N001 0 1685.5947035934994 
>>>>>>> dff9f569775684e9b57b294ed845f300c17af400
D1 N003 N001 D 
D2 N004 N001 D 
D3 0 N003 D 
D4 0 N004 D 
<<<<<<< HEAD
C1 N001 0 1.1259999999999999e-05 
R2 N002 N003 29.6843 
=======
C1 N001 0 1.1213217166399634e-05 
R2 N002 N003 33.37659876401923 
>>>>>>> dff9f569775684e9b57b294ed845f300c17af400
V1 N002 N004 SINE(0 170.83060321432882 60 0 0 -240.84000000000003) 
.model D D 
.lib C:\Users\user\Documents\LTspiceXVII\lib\cmp\standard.dio 
.options maxstep=1.25-5 
.tran 0 0.0512 
.backanno 
.end 
