Version 4
SHEET 1 880 680
WIRE 96 96 -32 96
WIRE 224 96 96 96
WIRE 304 96 224 96
WIRE 480 96 384 96
WIRE -32 144 -32 96
WIRE 96 144 96 96
WIRE 224 144 224 96
WIRE 480 144 480 96
WIRE -32 288 -32 224
WIRE 96 288 96 208
WIRE 96 288 -32 288
WIRE 224 288 224 224
WIRE 224 288 96 288
WIRE 352 288 224 288
WIRE 480 288 480 224
WIRE 480 288 352 288
WIRE 352 320 352 288
FLAG 352 320 0
SYMBOL res 208 128 R0
SYMATTR InstName R1
SYMATTR Value 398.4280
SYMBOL res 288 112 R270
WINDOW 0 32 56 VTop 2
WINDOW 3 0 56 VBottom 2
SYMATTR InstName R2
SYMATTR Value 1.7795
SYMBOL diode 80 144 R0
SYMATTR InstName D1
SYMBOL voltage 480 128 R0
WINDOW 123 0 0 Left 0
WINDOW 39 24 124 Left 2
SYMATTR InstName V1
SYMATTR Value 0
SYMBOL current -32 224 R180
WINDOW 0 24 80 Left 2
WINDOW 3 24 0 Left 2
WINDOW 123 0 0 Left 0
WINDOW 39 0 0 Left 0
SYMATTR InstName I1
SYMATTR Value 0.2
TEXT -8 432 Left 2 !.dc V1 0 5 1m
TEXT 0 392 Left 2 !.step temp 10 50 5
