* C:\Users\user\Desktop\python_spice\pv_single_diode\pv.asc 
<<<<<<< HEAD
R1 N001 0 648.203411487018 
R2 N001 N002 0.05135640577927187 
D1 N001 0 DPV 
V1 N002 0 0 
I1 0 N001 0.7798470180959874 
.model DPV D(Is=8.78115122895358e-06 N=1.9282807619865054 Tnom=33) 
=======
R1 N001 0 2184.0 
R2 N001 N002 2.558 
D1 N001 0 DPV 
V1 N002 0 0 
I1 0 N001 0.02646 
.model DPV D(Is=1.2984e-10 N=4.1216 Tnom=20) 
>>>>>>> 4160d36b6501da50f1236a6f64fe848b5c45e6bc
.lib C:\Users\user\Documents\LTspiceXVII\lib\cmp\standard.dio 
.dc V1 0.0 2.0 0.010000000000000002
.backanno 
.end 
 