* C:\Users\user\Desktop\python_spice\_trafo\trafo_single.asc 
<<<<<<< HEAD
R1 N001 N002 1 
L1 N002 N003 0.01 
V1 N001 0 SINE(0 3394.11 60) 
R2 N003 0 1000 
R3 N005 0 100 
L2 N003 0 1 
L3 N004 0 0.01 
=======
R1 N001 N002 2.297935483870968 
L1 N002 N003 0.2306949217986315 
V1 N001 0 SINE(0 3398.2945299964877 60) 
R2 N003 0 969.6974848484848 
R3 N005 0 100 
L2 N003 0 0.3734123479960899 
L3 N004 0 0.09775266177908114 
>>>>>>> c1404e8e3b2283350788a74cc47ac71bd79f10cc
L4 N004 N005 0.2m 
.tran 50ms 
K L2 L3 1 
.options maxstep=1e-6 
.backanno 
.end 
